Version 4
SHEET 1 1040 680
WIRE -112 -96 -320 -96
WIRE 576 -96 368 -96
WIRE -112 -80 -112 -96
WIRE 576 -80 576 -96
WIRE -112 16 -112 0
WIRE 576 16 576 0
WIRE -320 80 -320 -96
WIRE -208 80 -320 80
WIRE -16 80 -112 80
WIRE 32 80 -16 80
WIRE 144 80 112 80
WIRE 224 80 144 80
WIRE 368 80 368 -96
WIRE 480 80 368 80
WIRE 720 80 672 80
WIRE 832 80 800 80
WIRE 912 80 832 80
WIRE 224 128 224 80
WIRE 912 128 912 80
WIRE -208 144 -272 144
WIRE 144 144 144 80
WIRE 480 144 416 144
WIRE 832 144 832 80
WIRE -272 160 -272 144
WIRE 416 160 416 144
WIRE -320 272 -320 80
WIRE -272 272 -272 240
WIRE -272 272 -320 272
WIRE -112 272 -112 256
WIRE -112 272 -272 272
WIRE 144 272 144 208
WIRE 144 272 -112 272
WIRE 224 272 224 208
WIRE 224 272 144 272
WIRE 368 272 368 80
WIRE 416 272 416 240
WIRE 416 272 368 272
WIRE 576 272 576 256
WIRE 576 272 416 272
WIRE 832 272 832 208
WIRE 832 272 576 272
WIRE 912 272 912 208
WIRE 912 272 832 272
WIRE -112 288 -112 272
WIRE 576 288 576 272
FLAG -112 288 0
FLAG 576 288 0
SYMBOL voltage 224 112 R0
WINDOW 123 24 100 Left 2
WINDOW 39 24 128 Left 2
SYMATTR Value2 AC 1
SYMATTR SpiceLine Rser=50
SYMATTR InstName Vin1
SYMATTR Value ""
SYMBOL voltage -112 16 R180
WINDOW 0 24 96 Left 2
WINDOW 3 24 16 Left 2
SYMATTR InstName Vdd1
SYMATTR Value 5
SYMBOL voltage -272 144 R0
WINDOW 123 0 0 Left 0
WINDOW 39 0 0 Left 0
SYMATTR InstName V1
SYMATTR Value 1µ
SYMBOL voltage 912 112 R0
WINDOW 123 24 100 Left 2
WINDOW 39 24 128 Left 2
SYMATTR Value2 AC 1
SYMATTR SpiceLine Rser=50
SYMATTR InstName Vin2
SYMATTR Value ""
SYMBOL voltage 576 16 R180
WINDOW 0 24 96 Left 2
WINDOW 3 24 16 Left 2
SYMATTR InstName Vdd2
SYMATTR Value 5
SYMBOL voltage 416 144 R0
SYMATTR InstName V2
SYMATTR Value 5
SYMBOL Switches\\ADG701 -112 128 R0
SYMATTR InstName U1
SYMBOL Switches\\ADG701 576 128 R0
SYMATTR InstName U2
SYMBOL ind 128 64 R90
WINDOW 0 5 56 VBottom 2
WINDOW 3 32 56 VTop 2
SYMATTR InstName L1
SYMATTR Value {L}
SYMBOL ind 816 64 R90
WINDOW 0 5 56 VBottom 2
WINDOW 3 32 56 VTop 2
SYMATTR InstName L2
SYMATTR Value {L}
SYMBOL cap 128 144 R0
SYMATTR InstName C1
SYMATTR Value {C}
SYMBOL cap 816 144 R0
SYMATTR InstName C2
SYMATTR Value {C}
TEXT 144 424 Left 2 !.ac lin 2 868meg 868.1meg
TEXT -168 336 Left 2 !.net Vin1
TEXT 520 336 Left 2 !.net Vin2
TEXT 160 392 Left 2 !.param L=3n C=12p
